/*--------------------------------*- C++ -*----------------------------------*\
| =========                 |                                                 |
| \\      /  F ield         | OpenFOAM: The Open Source CFD Toolbox           |
|  \\    /   O peration     | Version:  v1806                                 |
|   \\  /    A nd           | Web:      www.OpenFOAM.com                      |
|    \\/     M anipulation  |                                                 |
\*---------------------------------------------------------------------------*/
FoamFile
{
    version     2.0;
    format      ascii;
    class       dictionary;
    object      fvSchemes;
}
// * * * * * * * * * * * * * * * * * * * * * * * * * * * * * * * * * * * * * //

ddtSchemes
{
    default         steadyState;
}

gradSchemes
{
    default         none;
    grad(U)         cellLimited Gauss linear 1;
    grad(p)         Gauss linear;
    grad(omega)     Gauss linear;
    grad(k)         Gauss linear;
}

divSchemes
{
    default         			none;
    div(phi,U)      			bounded Gauss linearUpwindV grad(U);
    div((nuEff*dev2(T(grad(U))))) 	Gauss linear;
    div(phi,omega)  			bounded Gauss upwind;
    div(phi,k)      			bounded Gauss upwind;
}

laplacianSchemes
{
    default         			    none;
    laplacian((1|A(U)),p)		    Gauss linear corrected; // For SIMPLE
    laplacian((1|((1|(1|A(U)))-H(1))),p)    Gauss linear corrected; // FOR SIMPLEC
    laplacian(nuEff,U)                      Gauss linear corrected;
    laplacian(DkEff,k)                      Gauss linear corrected;
    laplacian(DomegaEff,omega)              Gauss linear corrected;
}

interpolationSchemes
{
    default         linear;
}

snGradSchemes
{
    default         corrected;
}

wallDist
{
    method          meshWave;
//     correctWalls    true;
}


// ************************************************************************* //
