/*--------------------------------*- C++ -*----------------------------------*\
  =========                 |
  \\      /  F ield         | OpenFOAM: The Open Source CFD Toolbox
   \\    /   O peration     | Website:  https://openfoam.org
    \\  /    A nd           | Version:  9
     \\/     M anipulation  |
\*---------------------------------------------------------------------------*/
FoamFile
{
    format      ascii;
    class       polyBoundaryMesh;
    location    "constant/polyMesh";
    object      boundary;
}
// * * * * * * * * * * * * * * * * * * * * * * * * * * * * * * * * * * * * * //

3
(
    wall-sys-solid
    {
        type            wall;
        inGroups        List<word> 1(wall);
        nFaces          29394;
        startFace       1198123;
    }
    outlet
    {
        type            outlet;
        nFaces          1694;
        startFace       1227517;
    }
    inlet
    {
        type            inlet;
        nFaces          1694;
        startFace       1229211;
    }
)

// ************************************************************************* //
